240
Lattice="13.003980404 0.0 0.0 0.0 11.830378115 0.0 0.0 0.0 25.0" Properties=species:S:1:pos:R:3 pbc="T T T"
Ti      10.35728000       7.39414000       5.27226000
Ti       0.60429000       8.87293000       5.27226000
Ti       0.60429000       7.39414000       8.52325000
Ti      10.35728000       8.87293000       8.52325000
Ti      10.35728000       7.39414000      11.77425000
Ti       0.60429000       8.87293000      11.77425000
Ti       0.69732000       7.39431000      14.95330000
Ti      10.43925000       8.87383000      15.14307000
Ti      10.37867000       7.40080000      18.47302000
Ti       0.61463000       8.87497000      18.13475000
Ti      10.35728000      10.35173000       5.27226000
Ti       0.60429000       0.00015000       5.27226000
Ti       0.60429000      10.35173000       8.52325000
Ti      10.35728000       0.00015000       8.52325000
Ti      10.35728000      10.35173000      11.77425000
Ti       0.60429000       0.00015000      11.77425000
Ti       0.69894000      10.35159000      14.95541000
Ti      10.43301000      11.82978000      15.15157000
Ti      10.36454000      10.34939000      18.50229000
Ti       0.61694000      11.82888000      18.13343000
Ti      10.35728000       1.47895000       5.27226000
Ti       0.60429000       2.95774000       5.27226000
Ti       0.60429000       1.47895000       8.52325000
Ti      10.35728000       2.95774000       8.52325000
Ti      10.35728000       1.47895000      11.77425000
Ti       0.60429000       2.95774000      11.77425000
Ti       0.69920000       1.47797000      14.95479000
Ti      10.43901000       2.95548000      15.14230000
Ti      10.36319000       1.46907000      18.50195000
Ti       0.61589000       2.95239000      18.13422000
Ti      10.35728000       4.43654000       5.27226000
Ti       0.60429000       5.91534000       5.27226000
Ti       0.60429000       4.43654000       8.52325000
Ti      10.35728000       5.91534000       8.52325000
Ti      10.35728000       4.43654000      11.77425000
Ti       0.60429000       5.91534000      11.77425000
Ti       0.69764000       4.43587000      14.95333000
Ti      10.44263000       5.91485000      15.14791000
Ti      10.38566000       4.41732000      18.47407000
Ti       0.62548000       5.91531000      18.13268000
Ti       3.85529000       7.39414000       5.27226000
Ti       7.10628000       8.87293000       5.27226000
Ti       7.10628000       7.39414000       8.52325000
Ti       3.85529000       8.87293000       8.52325000
Ti       3.85529000       7.39414000      11.77425000
Ti       7.10628000       8.87293000      11.77425000
Ti       7.20147000       7.36939000      14.98833000
Ti       3.93739000       8.87132000      15.15142000
Ti       3.87252000       7.39501000      18.50380000
Ti       7.12613000       8.87348000      18.09865000
Ti       3.85529000      10.35173000       5.27226000
Ti       7.10628000       0.00015000       5.27226000
Ti       7.10628000      10.35173000       8.52325000
Ti       3.85529000       0.00015000       8.52325000
Ti       3.85529000      10.35173000      11.77425000
Ti       7.10628000       0.00015000      11.77425000
Ti       7.19845000      10.34094000      14.92581000
Ti       3.93498000      11.82989000      15.15262000
Ti       3.87776000      10.35132000      18.50420000
Ti       7.11002000      11.82889000      18.10474000
Ti       3.85529000       1.47895000       5.27226000
Ti       7.10628000       2.95774000       5.27226000
Ti       7.10628000       1.47895000       8.52325000
Ti       3.85529000       2.95774000       8.52325000
Ti       3.85529000       1.47895000      11.77425000
Ti       7.10628000       2.95774000      11.77425000
Ti       7.19879000       1.48982000      14.92725000
Ti       3.93596000       2.95783000      15.15212000
Ti       3.87617000       1.47672000      18.50268000
Ti       7.12444000       2.95332000      18.10613000
Ti       3.85529000       4.43654000       5.27226000
Ti       7.10628000       5.91534000       5.27226000
Ti       7.10628000       4.43654000       8.52325000
Ti       3.85529000       5.91534000       8.52325000
Ti       3.85529000       4.43654000      11.77425000
Ti       7.10628000       5.91534000      11.77425000
Ti       7.20058000       4.45915000      14.99425000
Ti       3.93298000       5.91519000      15.15510000
Ti       3.87032000       4.43374000      18.50190000
Ti       7.12781000       5.90580000      18.23705000
O       10.35728000       8.87293000       3.99787000
O       10.35728000       8.87293000       6.54664000
O        1.87868000       7.39414000       5.27226000
O       12.33389000       7.39414000       5.27226000
O        0.60429000       8.87293000       7.24887000
O        0.60429000       8.87293000       9.79764000
O       11.63166000       7.39414000       8.52325000
O        2.58090000       7.39414000       8.52325000
O       10.35728000       8.87293000      10.49986000
O       10.35728000       8.87293000      13.04863000
O        1.87868000       7.39414000      11.77425000
O       12.33389000       7.39414000      11.77425000
O        0.61544000       8.87403000      13.77036000
O        0.60508000       8.87011000      16.32862000
O       11.67152000       7.39698000      15.02878000
O        2.56391000       7.39575000      15.04748000
O       10.41219000       8.88039000      17.01191000
O       10.35163000       8.85985000      19.58306000
O        1.84448000       7.39387000      18.45565000
O       12.39967000       7.38437000      18.48761000
O       10.35728000       0.00015000       3.99787000
O       10.35728000       0.00015000       6.54664000
O        1.87868000      10.35173000       5.27226000
O       12.33389000      10.35173000       5.27226000
O        0.60429000       0.00015000       7.24887000
O        0.60429000       0.00015000       9.79764000
O       11.63166000      10.35173000       8.52325000
O        2.58090000      10.35173000       8.52325000
O       10.35728000       0.00015000      10.49986000
O       10.35728000       0.00015000      13.04863000
O        1.87868000      10.35173000      11.77425000
O       12.33389000      10.35173000      11.77425000
O        0.61619000      11.82974000      13.77054000
O        0.60923000      11.83000000      16.32743000
O       11.66857000      10.35609000      15.03803000
O        2.56375000      10.34908000      15.04976000
O       10.37938000      11.83002000      17.02006000
O       10.36797000      11.82684000      19.59157000
O        1.84155000      10.34603000      18.44710000
O       12.39969000      10.35026000      18.47161000
O       10.35728000       2.95774000       3.99787000
O       10.35728000       2.95774000       6.54664000
O        1.87868000       1.47895000       5.27226000
O       12.33389000       1.47895000       5.27226000
O        0.60429000       2.95774000       7.24887000
O        0.60429000       2.95774000       9.79764000
O       11.63166000       1.47895000       8.52325000
O        2.58090000       1.47895000       8.52325000
O       10.35728000       2.95774000      10.49986000
O       10.35728000       2.95774000      13.04863000
O        1.87868000       1.47895000      11.77425000
O       12.33389000       1.47895000      11.77425000
O        0.61530000       2.95629000      13.77048000
O        0.60666000       2.95891000      16.32845000
O       11.66836000       1.47452000      15.03887000
O        2.56325000       1.47845000      15.04646000
O       10.40922000       2.95225000      17.01194000
O       10.35346000       2.96417000      19.58090000
O        1.84033000       1.48112000      18.45055000
O       12.39895000       1.47755000      18.46853000
O       10.35728000       5.91534000       3.99787000
O       10.35728000       5.91534000       6.54664000
O        1.87868000       4.43654000       5.27226000
O       12.33389000       4.43654000       5.27226000
O        0.60429000       5.91534000       7.24887000
O        0.60429000       5.91534000       9.79764000
O       11.63166000       4.43654000       8.52325000
O        2.58090000       4.43654000       8.52325000
O       10.35728000       5.91534000      10.49986000
O       10.35728000       5.91534000      13.04863000
O        1.87868000       4.43654000      11.77425000
O       12.33389000       4.43654000      11.77425000
O        0.61637000       5.91496000      13.76997000
O        0.60822000       5.91504000      16.32682000
O       11.67133000       4.43300000      15.02941000
O        2.56405000       4.43609000      15.04681000
O       10.43614000       5.91648000      17.00857000
O       10.23641000       5.91213000      19.58675000
O        1.84330000       4.43524000      18.45404000
O       12.39962000       4.44340000      18.48742000
O        3.85529000       8.87293000       3.99787000
O        3.85529000       8.87293000       6.54664000
O        8.38067000       7.39414000       5.27226000
O        5.83190000       7.39414000       5.27226000
O        7.10628000       8.87293000       7.24887000
O        7.10628000       8.87293000       9.79764000
O        5.12967000       7.39414000       8.52325000
O        9.08289000       7.39414000       8.52325000
O        3.85529000       8.87293000      10.49986000
O        3.85529000       8.87293000      13.04863000
O        8.38067000       7.39414000      11.77425000
O        5.83190000       7.39414000      11.77425000
O        7.11945000       8.85864000      13.76523000
O        7.08612000       8.88741000      16.29954000
O        5.16011000       7.39273000      15.03999000
O        9.07474000       7.39514000      15.06188000
O        3.88366000       8.86798000      17.01745000
O        3.87019000       8.87154000      19.59170000
O        8.37684000       7.44099000      18.31436000
O        5.91554000       7.40178000      18.48885000
O        3.85529000       0.00015000       3.99787000
O        3.85529000       0.00015000       6.54664000
O        8.38067000      10.35173000       5.27226000
O        5.83190000      10.35173000       5.27226000
O        7.10628000       0.00015000       7.24887000
O        7.10628000       0.00015000       9.79764000
O        5.12967000      10.35173000       8.52325000
O        9.08289000      10.35173000       8.52325000
O        3.85529000       0.00015000      10.49986000
O        3.85529000       0.00015000      13.04863000
O        8.38067000      10.35173000      11.77425000
O        5.83190000      10.35173000      11.77425000
O        7.11464000      11.83023000      13.75668000
O        7.11241000      11.82890000      16.30462000
O        5.16138000      10.35329000      15.03307000
O        9.07090000      10.34899000      15.04447000
O        3.87062000      11.82900000      17.01449000
O        3.86106000      11.82933000      19.58920000
O        8.34617000      10.34902000      18.43561000
O        5.89544000      10.36007000      18.45170000
O        3.85529000       2.95774000       3.99787000
O        3.85529000       2.95774000       6.54664000
O        8.38067000       1.47895000       5.27226000
O        5.83190000       1.47895000       5.27226000
O        7.10628000       2.95774000       7.24887000
O        7.10628000       2.95774000       9.79764000
O        5.12967000       1.47895000       8.52325000
O        9.08289000       1.47895000       8.52325000
O        3.85529000       2.95774000      10.49986000
O        3.85529000       2.95774000      13.04863000
O        8.38067000       1.47895000      11.77425000
O        5.83190000       1.47895000      11.77425000
O        7.11890000       2.97304000      13.76762000
O        7.09507000       2.93763000      16.30401000
O        5.16172000       1.47677000      15.03489000
O        9.07159000       1.48027000      15.04317000
O        3.86943000       2.95560000      17.01418000
O        3.87324000       2.95800000      19.58730000
O        8.34659000       1.47431000      18.43530000
O        5.89432000       1.46849000      18.44716000
O        3.85529000       5.91534000       3.99787000
O        3.85529000       5.91534000       6.54664000
O        8.38067000       4.43654000       5.27226000
O        5.83190000       4.43654000       5.27226000
O        7.10628000       5.91534000       7.24887000
O        7.10628000       5.91534000       9.79764000
O        5.12967000       4.43654000       8.52325000
O        9.08289000       4.43654000       8.52325000
O        3.85529000       5.91534000      10.49986000
O        3.85529000       5.91534000      13.04863000
O        8.38067000       4.43654000      11.77425000
O        5.83190000       4.43654000      11.77425000
O        7.12081000       5.91272000      13.77646000
O        7.10255000       5.91991000      16.34467000
O        5.16078000       4.43648000      15.04668000
O        9.07412000       4.43644000      15.06405000
O        3.87066000       5.91984000      17.01761000
O        3.88586000       5.91340000      19.58870000
O        8.37443000       4.39507000      18.31395000
O        5.90128000       4.42330000      18.43087000
