4
Lattice="10.273755933 0.0 0.0 0.0 11.368810418 0.0 0.0 0.0 25.0" Properties=species:S:1:pos:R:3 pbc="T T T"
N        6.34213000       5.68441000      19.22002000
H        5.69641000       5.68441000      20.00999000
H        6.94928000       4.86545000      19.29664000
H        6.94928000       6.50336000      19.29664000
